25
Coordinates from ORCA-job aluminum_bromide_dimer_crest_opt_orca
  Br  -2.12732127176240     -3.11799433584359      0.35796757066425
  Al  -1.49611449268210     -1.03955638556441     -0.26945384481562
  Br  0.91837973019213     -1.28043692504787     -0.51378006682097
  Br  -2.32153614489616     -0.18328552738610     -2.19212284577826
  O   -1.71200494955962      0.18953672235946      1.01302659768646
  C   -2.14170939943486      0.16218750385881      2.40889615948503
  C   -2.85495476829169      1.04955392694265      1.49281595329176
  C   -4.17576137910582      0.76588783582604      0.89650950673077
  C   -4.74285225834176      1.74890347780005      0.08881998779258
  C   -5.95899337087845      1.51865775443068     -0.53614202313432
  C   -6.60905537020755      0.30417580652157     -0.35794967283872
  C   -6.04837350229093     -0.67725529922290      0.45178681945882
  C   -4.83708863687031     -0.44643922439522      1.08639023757761
  Br  3.93907611918573     -0.63661010094438      1.68043917787431
  Al  2.68856317301519      0.44194363771239      0.10966052313528
  Br  1.41293744840819      2.16199723032564      0.90673087128031
  Br  3.74069955471145      0.79049824028122     -1.87647061708386
  H   -1.39343031035610      0.58030448905800      3.06822130981473
  H   -2.58447334855517     -0.77889247151446      2.70852496966914
  H   -2.53289215197479      2.08297708852382      1.46765125024425
  H   -4.22187002544964      2.68872131919364     -0.05134517075025
  H   -6.39704437272481      2.28390937952361     -1.16392202603841
  H   -7.55736590219542      0.12210924435177     -0.84786378122573
  H   -6.55929854209991     -1.62020852539378      0.59758377249737
  H   -4.42327796393503     -1.21197651410191      1.73099427539607
