23
Coordinates from ORCA-job lithium_perchlorate_monomer_crest_opt_orca
  Li  1.26764626736050      0.94174351936795     -1.10186164154839
  O   -0.14612042191843      1.66900699174584     -0.31956262823521
  C   -0.47678897877994      1.91838902106742      1.05049151047592
  C   -1.53010954589373      1.77145289607455      0.03974848159602
  C   -2.33219509231006      0.52999672168243     -0.09312244359350
  C   -1.76918644788545     -0.72141890993141      0.14526512877371
  C   -2.54507554185376     -1.86413118093916      0.02586093745332
  C   -3.88915068241102     -1.76467381532322     -0.32486037749503
  C   -4.45166341774677     -0.51905147747427     -0.56378966065471
  C   -3.67272316313044      0.62647175802882     -0.45254015999280
  O   4.16866147877369     -0.76699705129138      0.05393992962120
  Cl  2.91559202422232     -0.19185797573369      0.41587393916491
  O   1.82100130480748     -0.81614752968536     -0.32995015077444
  O   2.67758553923247     -0.30532493550257      1.81668807397678
  O   2.89805174996139      1.21288487351026      0.01108256819567
  H   -0.20684323981876      2.90662763881692      1.39970397366350
  H   -0.27735423485876      1.08698968055053      1.71849931261339
  H   -1.99750496853994      2.67852146557863     -0.32725731695395
  H   -0.71969237021929     -0.80243055741218      0.41054296164299
  H   -2.10110722101258     -2.83676209061822      0.19926705178124
  H   -4.49257946102289     -2.65920969103324     -0.41488604820933
  H   -5.49510180626921     -0.43676323119610     -0.84129989228193
  H   -4.10751878455217      1.60231512215963     -0.63710102229632
