46
Coordinates from ORCA-job tin_iv_acetate_monomer_crest_opt_orca
  C   1.91015151185393     -3.82880599341588     -1.26468711935773
  C   1.56953487685165     -2.43357886921428     -0.88841666030188
  O   2.07643013476002     -1.43969313979836     -1.48935698335315
  O   0.77865208368023     -2.18111596154001      0.07402643688089
  C   -1.54127158406601      0.38983524514540     -3.55825807284959
  C   -0.35139984388721      0.50368837313637     -2.64986453249688
  O   -0.47705239513653     -0.17401607071230     -1.53109932977259
  O   0.63695985361034      1.16412673373250     -2.90995138704115
  C   2.15649549740637      3.77580813586105     -0.64111286390912
  C   1.72220705763923      2.37379598948681     -0.41698595100119
  O   0.55484172048502      2.08458361517627     -0.03083067574837
  O   2.51271255730261      1.39813726896145     -0.63854096996295
  C   3.16338268660492     -0.40375635795572      3.42848916019452
  C   2.67976565200295     -0.47756617446322      2.01362800844216
  O   1.51795871387883      0.08911533046758      1.79314702401904
  O   3.29410959863166     -1.01352211516775      1.10401965494075
  Sn  1.04190821868718     -0.06117697052753     -0.18540997222347
  O   -1.15531573110555     -0.07509925245386      1.14589110090094
  C   -1.47426166754945      0.95191535988022      2.08539726249196
  C   -2.21375809024709      0.83415337533703      0.82104428246597
  C   -3.57559735832682      0.24561567396457      0.75058252036034
  C   -3.90470130888437     -0.89602503872078      1.47875921543905
  C   -5.18641411973963     -1.42192760445962      1.40708589104349
  C   -6.15055040990606     -0.80974227247514      0.61281994141463
  C   -5.82523303814255      0.32760162762776     -0.11470739012406
  C   -4.53946208555654      0.85087756029637     -0.05006001746340
  H   2.17860713979760     -3.88407792686399     -2.31640218730044
  H   1.08620682425412     -4.49815622293359     -1.03117934018396
  H   2.77754344712884     -4.12106500018709     -0.66661816544536
  H   -1.35001035837946      0.89768887329630     -4.49929161885358
  H   -2.40474873178680      0.83908949290965     -3.06448172626024
  H   -1.77157232643312     -0.66074497222190     -3.73489451367857
  H   3.22035207297788      3.88120642934105     -0.44360391708517
  H   1.57162080706449      4.45800009268906     -0.03023567631639
  H   1.97520258289709      4.00303223202963     -1.69506070497639
  H   3.23130395569707      0.64242658812215      3.72892325628087
  H   4.13243829665422     -0.88454237893218      3.52493090788087
  H   2.43682274040820     -0.88824505646082      4.08192426611729
  H   -0.72160725889279      1.72345785893323      2.18842256538147
  H   -1.93030341974076      0.58364165394744      2.99744477434388
  H   -1.95888314290297      1.53031025030875      0.02952930691625
  H   -3.15322052794853     -1.37627392483477      2.09452447906253
  H   -5.43504842307991     -2.31155712438247      1.97225223473445
  H   -7.15011883964518     -1.22231848935537      0.55743336583213
  H   -6.56975744405603      0.80415521679819     -0.74015161404198
  H   -4.27935199690828      1.73228913664429     -0.62536456845500
