6
Coordinates from ORCA-job aluminum_phosphate_monomer_crest_opt_orca
  O   -0.96360419558128     -0.57485647739743     -0.48792304690846
  P   0.64143845386919     -0.18061534907909     -0.18990632120944
  O   1.21384636123519      0.48389546028396     -1.38082126715632
  O   0.17200811486523      0.97191027962610      0.93783126359233
  O   1.33109478894386     -1.29946965502898      0.48948820459762
  Al  -1.44955295333218      0.59914448159544      0.63123393708427
