13
Coordinates from ORCA-job aluminum_nitrate_monomer_crest_opt_orca
  N   0.15500945887799      2.47344373006723      0.11463023552409
  O   -0.07554540951000      1.86386288082500     -0.98764610922112
  O   0.17231049344523      3.63371875944001      0.25652594681686
  O   0.37246259657977      1.62104436835556      1.06806672952122
  N   1.96567568207032     -1.16237167430993     -0.16981164946506
  O   1.51829856995933     -0.43813723472022     -1.14867039283378
  O   2.93730557883859     -1.81101361618654     -0.22269664082787
  O   1.20408118305460     -1.05284306963010      0.85474380864960
  N   -2.12112688716857     -1.42632854412650      0.11041730451197
  O   -1.52605387036716     -0.33889458597092     -0.40490329457000
  O   -3.24617715356011     -1.61327609650357     -0.24473514293670
  O   -1.47228840476809     -2.10171037342995      0.87028525164113
  Al  0.11557993254810      0.18760523618991     -0.09605014681035
