25
Coordinates from ORCA-job aluminum_trifluoromethanesulfonate_monomer_crest_opt_orca
  C   2.34269057516204      2.34240683072803      0.24447412915688
  F   1.15167691897295      2.85286679492633      0.04950930632437
  F   2.98825539035231      3.03428711727225      1.16085620853857
  F   3.03443449055129      2.32519354262874     -0.86959834854747
  S   2.15748130451540      0.57064348658709      0.97891471351354
  O   0.68047788354564      0.35370612627701      0.96467916950100
  O   0.92526089129584      0.60764767982144     -1.66524839816333
  O   2.76147806984051     -0.23739609606712     -0.29402565919735
  C   -4.04238836525456      0.42104247683289     -0.25701367914108
  F   -5.09401188615134      0.79649743477127      0.44202431088207
  F   -3.96438547809838      1.14137921131276     -1.35647330858488
  F   -4.15072816902637     -0.85461600494119     -0.56185018001619
  S   -2.50354589076552      0.68861931984682      0.78924854986013
  O   -1.80879157718440     -0.62926336019933      0.81937894446128
  O   -1.58345340298868      1.49202047394216     -0.06720254706117
  O   -2.92120792248359      1.24296642395683      2.02104676570986
  C   1.72682190430139     -3.16677842714358      1.33930176756062
  F   0.45274658663620     -3.41863305168142      1.40039785736637
  F   -1.51562409243537     -0.53814947850834     -1.78656351009510
  F   2.32246768464265     -4.13833536967774      0.71224253881936
  S   1.72521723419712     -0.62651853196315     -1.50560414960959
  O   2.25740750454060     -2.21836441459414      1.78214855653631
  O   0.77651802317086     -1.55247831645706     -0.86246156352077
  O   2.55061778361818     -1.08273210592087     -2.54128527397913
  Al  -0.52984963095478     -0.05841301174965     -0.51566024031431
