17
Coordinates from ORCA-job copper_ii_trifluoromethanesulfonate_monomer_crest_opt_orca
  C   3.66728931126729      0.69675566906128     -0.00062250145992
  F   4.42222560571572      0.61586823070579     -1.08021420560914
  F   3.02049896840742      1.84904239651540     -0.00082439079927
  F   4.42333870250916      0.61683208085601      1.07825043403393
  S   2.46333233594892     -0.69990478620012      0.00063497683028
  O   1.58642558322854     -0.44136561322490      1.16984412881747
  O   1.58602622256034     -0.44302921614728     -1.16864725746947
  O   3.23159217510810     -1.89111303878900      0.00134690047268
  C   -3.66726800672281     -0.69678157994405     -0.00101304621486
  F   -3.02043471168425     -1.84904412902840     -0.00040005136559
  F   -4.42344439151466     -0.61616657668741      1.07771747057156
  F   -4.42208368995916     -0.61663953119532     -1.08074603641785
  S   -2.46336297432939      0.69992151143622     -0.00041494088308
  O   -1.58680496376270      0.44226126445707      1.16925055676760
  O   -1.58569154256715      0.44222890252983     -1.16924298310883
  O   -3.23166815904208      1.89110006750937     -0.00080053153084
  Cu  -0.00001274516326      0.00002915814550      0.00050053736534
