4
Coordinates from ORCA-job indium_iii_chloride_monomer_crest_opt_orca
  Cl  -1.40315379359037      1.89489393963454      0.00003325417318
  In  -0.01742540022116      0.00872253550458      0.00004236644737
  Cl  -0.88668796964419     -2.15629415721273      0.00003320019001
  Cl  2.30709611345573      0.25260814207362      0.00003335918944
