6
Coordinates from ORCA-job lithium_perchlorate_monomer_crest_opt_orca
  Li  -2.28098101516415      0.00128954318589     -0.00024772382960
  O   -0.69001466692788      0.00028086857464      1.15351695491411
  Cl  0.21231251143082     -0.00026452183347      0.00006761438073
  O   -0.68948097874698      0.00083954698492     -1.15377575289179
  O   1.01687112317131      1.17344636215182      0.00053556125033
  O   1.01471158623688     -1.17547919906381     -0.00002018382378
