25
Coordinates from ORCA-job scandium_iii_trifluoromethanesulfonate_monomer_crest_opt_orca
  C   -3.53009781639984      2.45312412629743     -0.03343068591021
  F   -3.90017042514023      1.87125604024486     -1.15147428691063
  F   -3.93367421960984      1.72588479769722      0.99230982007571
  F   -4.09143018512308      3.64243247596238      0.03004263671279
  S   -1.69273275169957      2.65707032811299      0.03082696881686
  O   -1.28353883934231      3.09525100520663     -1.26058343810769
  O   -1.43445724207568      3.46705075825494      1.16712503961498
  O   -1.28679456360504      1.23974546731126      0.27709461395699
  C   3.39809376239860     -1.31538071796965     -1.21084920057452
  F   2.80489473123829     -2.46972410157897     -1.13032834123900
  F   3.25553947298550     -0.79968596659948     -2.40713039154432
  F   4.63904609311642     -1.43441928261012     -0.89238936678343
  S   2.61636025412840     -0.11611343911058     -0.03277539654468
  O   2.68655914077128     -0.94868611791880      1.28912787559848
  O   3.44213850169212      1.02546552052508      0.05529763065673
  O   1.24745649851556      0.01170910211705     -0.42694349193473
  C   -1.11845071312471     -1.36658617354075     -1.75439150164400
  F   -2.15857814556963     -1.11594115398143     -2.43151045727114
  F   -0.33756882472661     -2.01645046167875     -2.46775557759241
  F   -2.19041532408271     -1.45232421214202      1.37281043814734
  S   1.35969975688186     -1.67909980985303      2.04304583666795
  O   0.68928061618833     -2.37436257030119      0.95464764738785
  O   0.52341158276429     -0.52827154534981      2.37677853877212
  O   1.98626454286150     -2.39292154995596      3.07676183675577
  Sc  -0.74321954304294     -0.64033764913934      0.57957594289320
