5
Coordinates from ORCA-job tin_iv_fluoride_monomer_crest_opt_orca
  F   1.31067653846096      0.48222703229607      1.24489336707684
  Sn  0.00442466534396      0.00424376782422     -0.01590071489530
  F   -1.16531269581460     -1.06839552361177      0.99107847065523
  F   0.70605489133651     -0.93167969897668     -1.48767258925282
  F   -0.85471070932682      1.51201682246816     -0.73386726358396
