19
Coordinates from ORCA-job tinii_trifluromethanesulfonate_monomer_crest_opt_orca
  F   -3.72080567245473      0.87115043046449      1.81031722156787
  C   -3.72686579313241      0.65452665673537      0.50560379767388
  F   -4.96802543380679      0.43893578338481      0.10262602778892
  F   -3.24619365675433      1.71961443189335     -0.11572908865036
  S   -2.69337662354930     -0.81546398484945      0.10329000177602
  O   -3.27302427997577     -1.90731060043071      0.80465564728981
  O   -2.60716110135379     -0.84768717176530     -1.33929498983890
  O   -1.34165423575294     -0.40333238053288      0.62698715391049
  Sn  -0.00020909471012     -0.00096165914859     -0.96852349209870
  O   1.34063237278759      0.39744304632137      0.62859351645201
  S   2.69102872229570      0.81429052550842      0.10518751310174
  O   2.60452349216086      0.84762575364316     -1.33739793284146
  O   3.26721767312193      1.90737887453264      0.80738821342594
  C   3.72906366643885     -0.65299210291891      0.50538312455221
  F   4.96886927215777     -0.43451218766802      0.09974760514140
  F   3.72627315481444     -0.86959789681649      1.81006472949909
  F   3.24967332581389     -1.71922467831439     -0.11503653775915
  H   -0.50627145583311      1.49423707168745     -1.51337548877432
  H   0.50614238773226     -1.49490468172631     -1.51656515221649
