5
Coordinates from ORCA-job titanium_tetrachloride_monomer_crest_opt_orca
  Cl  0.73464481219998      0.33428687315592     -2.00841715334440
  Ti  -0.00156386656228     -0.00663470899090      0.00226741672614
  Cl  0.08134114809464     -2.13100701965393      0.43420441123972
  Cl  1.22994425628982      1.10988301092403      1.39639922837293
  Cl  -2.04423982002215      0.69350719456488      0.17543671700562
