8
Coordinates from ORCA-job aluminum_bromide_dimer_crest_opt_orca
  Al  -1.67160112259883      0.00002512244633     -0.00003702922310
  Br  -2.79783091811021      1.93891250299486     -0.00016084871365
  Br  -2.79694055667049     -1.93943288270780      0.00023329488651
  Br  0.00001049168100      0.00042304023693     -1.76908084027073
  Al  1.67160830081286      0.00006770968719     -0.00001817933146
  Br  2.79698892313992     -1.93936484399807      0.00002350112951
  Br  -0.00001438000426      0.00043307751074      1.76901178372481
  Br  2.79779936175001      1.93897981382982      0.00015894779810
