6
Coordinates from ORCA-job copper_ii_chloride_dimer_crest_opt_orca
  Cl  0.00289691400348     -1.66735223653880      0.00783095042062
  Cu  1.47589213984110      0.00326251417019     -0.00171117201589
  Cl  3.64204479951063     -0.00257975514702     -0.00600742128902
  Cl  -3.64201997669980      0.00262450231199     -0.00554473870263
  Cu  -1.47587711577585     -0.00327446255719     -0.00249651577314
  Cl  -0.00293460087957      1.66734273776082      0.00784269736006
