34
Coordinates from ORCA-job copper_ii_trifluoromethanesulfonate_dimer_crest_opt_orca
  C   -1.78585235640597      4.12283897212364      1.20848001440900
  F   -0.61040298408671      4.74646694088098      1.34906940366782
  F   -2.32550627878381      4.45066534757399      0.01200390686411
  F   -2.62134261701129      4.49349013396577      2.19345887800259
  S   -1.50375436549739      2.31351284545651      1.30556769200415
  O   -2.85526292842398      1.78691902802592      1.06288746435825
  O   -0.59566242705405      2.09660946536478      0.16281124343164
  O   -0.95601980605843      2.03251352603041      2.58321443016058
  C   3.10088413743080     -2.80311866462879     -0.70667934356530
  F   3.23540852353308     -1.86287244707252     -1.63527870581618
  F   3.66855762017056     -3.92198192924999     -1.07754070239589
  F   1.81801068937593     -3.00752920416592     -0.45629301604991
  S   3.52870613682131     -1.04513871002052      1.16704583565273
  O   4.09645770258576     -1.10714670639872      2.42716396235470
  O   3.78492859977500     -2.41447682619215      0.47600503524338
  O   2.16994716957608     -0.64416592576131      0.95538173648301
  Cu  -3.37159091785238     -0.07309606581339      0.81672820791549
  C   5.38687180943605      1.10061514927974     -1.79443493560380
  F   5.10081164150057      0.09556295568121     -2.57447875353731
  F   5.36369545971948      2.21454988197206     -2.45516215336975
  F   6.56457885592892      0.91872348993545     -1.21063584628443
  S   4.06358708118177      1.26491589142019     -0.51601559312282
  O   2.80054726805477      1.08185698552816     -1.14039035713180
  O   4.47030508091519     -0.10458324549322      0.28329571309768
  O   4.34516078365993      2.36626743815094      0.31303239079188
  C   -5.58690010313961     -2.28748958499587     -1.27702968417649
  F   -5.39860892979806     -1.10067487603958     -1.74498632581759
  F   -4.75097030341849     -3.08236367186584     -1.86406530337680
  F   -6.79381278597722     -2.64259049470216     -1.60154439145878
  S   -5.31624299574516     -2.30998648206973      0.53233066218823
  O   -5.53067203307316     -3.66831206735428      0.93089370480332
  O   -3.89731473132521     -1.91202133496255      0.58095812178516
  O   -6.20030942126619     -1.30936106570991      1.05238595202158
  Cu  0.76551721525189      0.64675656110669      0.06871149647152
