6
Coordinates from ORCA-job lead_ii_bromide_dimer_crest_opt_orca
  Br  -0.00290550286567     -0.00676724640548     -1.96187737435661
  Pb  1.97857757520526     -0.93839201807997      0.00247306605322
  Br  3.43704570472215      1.37856150751512     -0.00236452220494
  Br  0.00201414626525      0.00807562233349      1.96193198353126
  Pb  -1.98095734974208      0.93801737434993     -0.00239702825659
  Br  -3.43847443358491     -1.37992711971308      0.00254680523365
