6
Coordinates from ORCA-job lead_ii_fluoride_dimer_crest_opt_orca
  F   2.20496346635771     -1.63970303316815      0.00063072063931
  Pb  1.71684696505600      0.45210749018166     -0.00054268933961
  F   -0.07688331619968     -0.14361028312271      1.33449911492102
  F   -1.85787214725484      1.81110800425533     -0.00039953585565
  Pb  -1.90970296148298     -0.33626758874084     -0.00033228265030
  F   -0.07684059647622     -0.14397574940531     -1.33537011771476
