4
Coordinates from ORCA-job lithium_chloride_dimer_crest_opt_orca
  Li  -0.00000290897774      1.35391737348445     -0.00041526436077
  Cl  -1.81439365582213     -0.00000661088558      0.00050528484815
  Li  0.00000378958721     -1.35391531367702     -0.00041526579898
  Cl  1.81439277521266      0.00000455107816      0.00050528531160
