6
Coordinates from ORCA-job nickel_ii_chloride_dimer_crest_opt_orca
  Cl  0.00019057938547     -1.15835901731628     -0.17994142067202
  Ni  1.60195544751458      0.39595359264442     -0.00500682384173
  Cl  3.36699750416260     -0.80631481940240      0.10107691514533
  Cl  -3.36681417952439     -0.80728467187454      0.10114503092380
  Ni  -1.60206930539232      0.39543741931529     -0.00506051839327
  Cl  -0.00028217614593      1.98014104663350     -0.01188094316210
