6
Coordinates from ORCA-job tin_ii_bromide_dimer_crest_opt_orca
  Br  -3.31909422530166     -0.00023279801208     -0.90462456716755
  Sn  -1.73939502265046     -0.00032048770798      1.17041129449454
  Br  -0.00008171774435      1.91256995840131      0.00090410877647
  Br  3.31968580655233      0.00021684754569      0.90369719582712
  Sn  1.73884162683359      0.00029960159724     -1.17045459281423
  Br  0.00011864231055     -1.91258743182417      0.00003951088364
