26
Coordinates from ORCA-job trimethylaluminum_dimer_crest_opt_orca
  C   0.34400853285684     -0.10098827841173      0.01045980735492
  Al  2.32610310684359     -0.02029869644708      0.00056435263585
  C   3.14885187745987      1.74966478237725     -0.04324129056753
  C   3.32289778853207     -1.69688172826919      0.03866283048242
  C   -2.44755286730292     -1.11854861722049     -1.58563534593061
  Al  -2.05744731218706     -0.00777615918872     -0.00134611374026
  C   -2.34500153464839      1.93465782393137     -0.19469104802553
  C   -2.42804836713153     -0.78362171572506      1.77507869818377
  H   0.06489883083316      0.35700517900223     -0.94304538219218
  H   0.06718191596657      0.50903810883461      0.87463355298075
  H   0.04880781897210     -1.14754341796407      0.09845035833915
  H   3.83104206215225      1.83991177939794     -0.89376639535751
  H   3.74081818126372      1.91715273676909      0.86187003776622
  H   2.40853270530289      2.54994661221098     -0.11370825219333
  H   4.40479287573115     -1.54662188803566      0.04655316095800
  H   3.07153201530182     -2.30680925513503     -0.83445673102187
  H   3.05494607593508     -2.27915104160962      0.92562336153647
  H   -2.08868315261646     -2.14680400494500     -1.47398658755666
  H   -1.99534051049763     -0.70939964065290     -2.49501393846060
  H   -3.52742172222506     -1.17317563253532     -1.76317191970797
  H   -1.93992358053170      2.32239626319079     -1.13513523871744
  H   -1.88741625332866      2.50616254902601      0.61960712611075
  H   -3.41505655049263      2.17122519219610     -0.18677217359431
  H   -2.08758252084132     -1.82051307777373      1.86063131573530
  H   -3.50455210694628     -0.78202946991461      1.98019981542141
  H   -1.94996700840148     -0.21281106310818      2.57783871956081
