20
Coordinates from ORCA-job lead_ii_chloride_monomer_crest_opt_orca
  Cl  0.76695308298989      2.16020175229302      0.91300481196007
  Pb  1.42659805107449      0.03606951700110     -0.49463298558636
  Cl  2.03637956899517     -1.36882813845946      1.64269504173985
  O   -0.90775936201773     -0.91276762698714     -0.02183919653602
  C   -1.44082191003517     -1.73277100087170      1.02320401858212
  C   -1.88581914432220     -0.34335880429156      0.86917611554326
  C   -3.18898790425744      0.01766258905483      0.25554008305854
  C   -3.70958869111837     -0.70938472159356     -0.81356830877936
  C   -4.93206640569629     -0.35558525904216     -1.36488707823996
  C   -5.64334901450126      0.72548990490463     -0.85338969784878
  C   -5.12603553834354      1.45300506907865      0.21004685251947
  C   -3.89799630732302      1.10363496284555      0.75892486492514
  H   -0.73558609538264     -1.97485874181453      1.80850310143212
  H   -2.07996015323392     -2.53174030390648      0.66547014727599
  H   -1.46678771289267      0.38797546871575      1.55211407598501
  H   -3.15427669981659     -1.54801488872971     -1.21742238206116
  H   -5.33079306859073     -0.92162112711838     -2.19748537926321
  H   -6.59704664745767      1.00047584709148     -1.28620280784828
  H   -5.67280181293764      2.29847407654262      0.60826990035190
  H   -3.48375424440360      1.67530863578351      1.58150677102531
