 xtb: 6.5.1 (conda-forge)
          10182211373D

 20 20  0     0  0            999 V2000
   -0.7439    2.0536    0.7511 Br  0  0  0  0  0  0  0  0  0  0  0  0
   -0.6978   -0.1089   -0.7570 Sn  0  0  0  0  0  0  0  0  0  0  0  0
   -2.8377   -1.1804    0.3227 Br  0  0  0  0  0  0  0  0  0  0  0  0
    0.8122   -1.1327    1.0541 O   0  0  0  0  0  0  0  0  0  0  0  0
    1.4757   -0.6527    2.2255 C   0  0  0  0  0  0  0  0  0  0  0  0
    2.2390   -1.3142    1.1595 C   0  0  0  0  0  0  0  0  0  0  0  0
    3.0920   -0.5695    0.1969 C   0  0  0  0  0  0  0  0  0  0  0  0
    2.8502    0.7682   -0.1145 C   0  0  0  0  0  0  0  0  0  0  0  0
    3.6583    1.4320   -1.0249 C   0  0  0  0  0  0  0  0  0  0  0  0
    4.7243    0.7693   -1.6247 C   0  0  0  0  0  0  0  0  0  0  0  0
    4.9742   -0.5600   -1.3126 C   0  0  0  0  0  0  0  0  0  0  0  0
    4.1572   -1.2288   -0.4087 C   0  0  0  0  0  0  0  0  0  0  0  0
    1.2324   -1.2058    3.1243 H   0  0  0  0  0  0  0  0  0  0  0  0
    1.5172    0.4267    2.3148 H   0  0  0  0  0  0  0  0  0  0  0  0
    2.5109   -2.3528    1.3095 H   0  0  0  0  0  0  0  0  0  0  0  0
    2.0321    1.3005    0.3574 H   0  0  0  0  0  0  0  0  0  0  0  0
    3.4593    2.4698   -1.2615 H   0  0  0  0  0  0  0  0  0  0  0  0
    5.3571    1.2903   -2.3322 H   0  0  0  0  0  0  0  0  0  0  0  0
    5.8018   -1.0805   -1.7775 H   0  0  0  0  0  0  0  0  0  0  0  0
    4.3465   -2.2689   -0.1698 H   0  0  0  0  0  0  0  0  0  0  0  0
  1  2  1  0  0  0  0
  2  3  1  0  0  0  0
  4  5  1  0  0  0  0
  4  6  1  0  0  0  0
  5  6  1  0  0  0  0
  6  7  1  0  0  0  0
  7  8  4  0  0  0  0
  8  9  4  0  0  0  0
  9 10  4  0  0  0  0
 10 11  4  0  0  0  0
  7 12  4  0  0  0  0
 11 12  4  0  0  0  0
  5 13  1  0  0  0  0
  5 14  1  0  0  0  0
  6 15  1  0  0  0  0
  8 16  1  0  0  0  0
  9 17  1  0  0  0  0
 10 18  1  0  0  0  0
 11 19  1  0  0  0  0
 12 20  1  0  0  0  0
M  END
