21
Coordinates from ORCA-job aluminum_chloride_monomer_crest_opt_orca
  Cl  1.79428664887249     -1.68852670633716      1.33233149993265
  Al  1.65737934919847     -0.19424525248004     -0.16458206002341
  Cl  3.41959054299291      0.96968034844055     -0.33120952101796
  Cl  0.93638812421892     -0.87180680066002     -2.03557761677100
  O   0.37667139021951      1.02760169060697      0.45015856251914
  C   -0.32458439300296      1.15306403104522      1.71717035448178
  C   -1.11112382097875      1.06587040674622      0.48759251981526
  C   -1.83469232197346     -0.14100067976794      0.02717373078011
  C   -1.78250068424975     -1.35654993573760      0.70727081728891
  C   -2.45266130049934     -2.46097187004766      0.20117279259434
  C   -3.18489914403416     -2.35522697344677     -0.97567664029242
  C   -3.25275400815487     -1.14067269214915     -1.64681197573685
  C   -2.57818771505723     -0.03675855170591     -1.14652903010227
  H   -0.17302148337082      2.12138132888608      2.17441334068439
  H   -0.22651793549653      0.28895039689071      2.36063896994023
  H   -1.44558716154005      2.00204356360965      0.05873098525281
  H   -1.22888691307411     -1.45179890789943      1.63247934550092
  H   -2.40941285471449     -3.40355244067899      0.73171073189548
  H   -3.70805928491500     -3.21925915193244     -1.36579845245465
  H   -3.82800477039780     -1.05491596454297     -2.55969987446518
  H   -2.61993373922553      0.91248261625308     -1.66783139193701
