20
Coordinates from ORCA-job copper_ii_flouride_monomer_crest_opt_orca
  F   0.90556460407769     -1.14733739307752     -1.79466149773648
  Cu  1.49519256747327     -0.55337259258081     -0.19114189803311
  F   2.25270850036019     -0.45263805877260      1.44818284619996
  O   1.05258394023133      1.43968356110436     -0.41416853794336
  C   0.68998020274018      2.25342022990319      0.71812539825480
  C   -0.35531117508234      1.75631059696431     -0.17658052737995
  C   -1.20985844925230      0.57738072831756      0.12501810647107
  C   -2.22074154715224      0.24114527631686     -0.77272257757922
  C   -2.97692380887891     -0.90593678014311     -0.57803226842086
  C   -2.72283284112337     -1.73164490999780      0.51018306533294
  C   -1.72170644868001     -1.39900185251957      1.41319435291839
  C   -0.97083857761249     -0.24491335632161      1.22868698359924
  H   1.01184833760281      3.28182393809708      0.61892671814215
  H   0.85450331543444      1.78674998347526      1.68005392746912
  H   -0.74194858365924      2.43603715564162     -0.92607525571738
  H   -2.40554535448737      0.87966549171495     -1.62838637686547
  H   -3.75992711288794     -1.15912005484673     -1.28146172339743
  H   -3.30805292827606     -2.63034619179943      0.65724774941995
  H   -1.52744322287612     -2.03175990540980      2.26976144261471
  H   -0.21296337868584      0.01059421834094      1.96039361963550
