21
Coordinates from ORCA-job indium_iii_chloride_monomer_crest_opt_orca
  Cl  1.19008497366770      0.22147237831111     -2.33933243707703
  In  1.19090276077794      0.26242451808221      0.02533551245355
  Cl  2.99450787132338     -0.79549521902064      1.11212296438811
  Cl  0.08777954166377      2.02964663151230      1.10983692891914
  O   -0.08173662163444     -1.75280764262303      0.32879328853381
  C   -0.64639393110038     -2.56335327539585     -0.72241981340383
  C   -1.53084050168354     -1.92736022848058      0.25231206674380
  C   -2.33639528275145     -0.70832530571005     -0.01470522689550
  C   -3.08191266234790     -0.17672610984505      1.03647764697596
  C   -3.82774328059611      0.97878052906509      0.85385397266427
  C   -3.83201564337027      1.61218051592204     -0.38310343597111
  C   -3.09617343224694      1.08417727002843     -1.43674036272927
  C   -2.35264553324709     -0.07483796592694     -1.25651229968782
  H   -0.41774590996837     -3.61561330084584     -0.61413085992051
  H   -0.53906586672111     -2.14788072796453     -1.71600148141158
  H   -1.87930843239276     -2.53907305075400      1.07624164973211
  H   -3.07423534600413     -0.67628710098868      1.99849690805145
  H   -4.40414056207622      1.38497936244937      1.67541425243933
  H   -4.41313793808999      2.51423402586405     -0.52789791091503
  H   -3.10716148155582      1.56959248382876     -2.40448591350090
  H   -1.80208940881355     -0.48410286697236     -2.09387127301674
