20
Coordinates from ORCA-job nickel_ii_chloride_monomer_crest_opt_orca
  Cl  2.93735115851319      0.66662990150124      0.32158127648260
  Ni  0.95595670551806     -0.07998468816299     -0.26598957225699
  Cl  1.35284668801395     -2.18384853165748      0.13652726851760
  O   0.31515050249608      1.81112959920454     -0.70721352685231
  C   -0.30457904321080      2.43953499431492      0.44392636143644
  C   -1.11789248631448      1.67205156296271     -0.49309125646995
  C   -1.47373455926225      0.24698123309819     -0.22471434991614
  C   -1.91391746123580     -0.18550453444957      1.03127758941246
  C   -2.28721428259596     -1.50602827090225      1.20624894482741
  C   -2.21955552202834     -2.40359807049747      0.14155433309251
  C   -1.76199070580793     -1.98905398812100     -1.09671730442237
  C   -1.38270797199074     -0.66234787399539     -1.28651218749243
  H   -0.30783831467347      3.51881618919302      0.37566235783215
  H   -0.02271186780122      2.00706513142317      1.39604061385834
  H   -1.70258775998833      2.20133246978024     -1.23571081662392
  H   -1.97685143550813      0.52126444773883      1.84948327417681
  H   -2.63612320755930     -1.84185245740196      2.17425250072755
  H   -2.51927199012690     -3.43328999057362      0.28966219907849
  H   -1.69512678509949     -2.68906613602254     -1.91895008922793
  H   -1.06940535717821     -0.31579429982342     -2.26624648767407
