20
Coordinates from ORCA-job stannic_chloride_monomer_crest_opt_orca
  Cl  0.81198401880915     -1.59640573435562      1.42520102225133
  Sn  1.29525878171562     -0.23009680196184     -0.57181132789709
  Cl  3.12384542102101      0.95368218645990      0.57269844372316
  O   -0.35264224166505      1.43948198163214      0.52977866053106
  C   -0.76455381250881      1.59191132240416      1.88861104581189
  C   -1.69406812533842      1.88551885780635      0.78800804372935
  C   -2.80569376698468      0.96867887805054      0.42862901025205
  C   -4.03214886520224      1.50909836649671      0.05471420610630
  C   -5.10098350130495      0.67508797555262     -0.25093334592270
  C   -4.94553179807188     -0.70359839364995     -0.19566484747357
  C   -3.71754102303389     -1.24680576344231      0.16821849869943
  C   -2.65301994121198     -0.41525188259547      0.48257315999483
  H   -0.27931381550730      2.40676396834232      2.41180944852583
  H   -0.88096854432122      0.65817247175208      2.42740538042494
  H   -1.84683994830365      2.92643741263051      0.52577395780020
  H   -4.14855146163047      2.58558293155078      0.00421822106285
  H   -6.05295425423441      1.10350373318383     -0.53833402703093
  H   -5.77678957625724     -1.35401588074562     -0.43740658306796
  H   -3.59057961723139     -2.32141364845663      0.21140393030986
  H   -1.70066153793072     -0.84282753299216      0.77404243155472
