23
Coordinates from ORCA-job copper_ii_flouride_dimer_crest_opt_orca
  F   -1.67817320847638      0.88517872227458     -1.06850822826882
  Cu  0.07335966799935      1.33370588534694     -0.02486978764933
  F   1.06200495368639      2.86513741628294     -0.43496749521559
  O   -0.40745260114891     -0.50673054788574      0.90790413864326
  C   0.27653169944802     -1.09895529612927      2.04062776045521
  C   0.67655539505834     -1.47476890984648      0.68588123407067
  C   1.83993692425455     -0.87343842963388     -0.01756793612610
  C   1.79720234758544     -0.81344718018302     -1.41225432606398
  C   2.80552186784415     -0.16607661952706     -2.11097424046166
  C   3.86678548902240      0.41019265739703     -1.42118267964455
  C   3.92005000244070      0.33698681077929     -0.03504493709412
  C   2.90696335040736     -0.30026635913605      0.67004213267528
  F   -1.78926833055858     -1.67501423788750     -1.33145382298999
  Cu  -2.40724514066462     -0.51328902103715     -0.22041402335857
  F   -3.21753082437447      0.43464748330346      0.95734581377001
  H   -0.34571467063170     -1.77891431041630      2.60676739753399
  H   0.86285412410410     -0.38582747786978      2.60453365352124
  H   0.29255701226505     -2.40819781184635      0.29162423067293
  H   0.96667092018536     -1.26850267066144     -1.94083561007050
  H   2.76399603973878     -0.11226221702968     -3.19139101514187
  H   4.65481658899031      0.91548471392582     -1.96517608044326
  H   4.74986804919296      0.78061708444768      0.49987969804285
  H   2.95007554037802     -0.35348268921844      1.75093786890119
