51
Coordinates from ORCA-job copper_ii_trifluoromethanesulfonate_dimer_crest_opt_orca
  O   3.66689717048125      2.16094238354141      4.69362641536007
  S   3.19286765308450      1.40402727830441      3.60940676813862
  O   3.44575981932571      0.04127093735663      3.40806131083998
  O   3.44671358070757      2.13350297741592      2.23713947513112
  C   3.66990498672145      3.52456783795885      2.16893002746267
  F   3.56724943189298      3.82484920048192      0.90406378695158
  F   2.76728527614564      4.17590870482366      2.87025717769370
  F   4.86912258157890      3.80556169808562      2.61388286009254
  O   -0.82381896011132     -2.94763246597792      1.25022236889469
  S   -1.12302405855540     -2.10799148876241      0.08027042064303
  O   -1.69542238841102     -0.83392925878516      0.43665137270715
  O   -0.03856116109806     -2.05583033753016     -0.89073281125966
  C   -2.41555429000893     -3.04782088683094     -0.83563807876152
  F   -1.92515825561819     -4.22150738047419     -1.20963945804243
  F   -3.48960617671496     -3.24812974952858     -0.08218948329658
  F   -2.76579012798310     -2.36548508187692     -1.92150969896606
  O   1.02196277917157      1.69024907974404     -0.83560635336435
  S   1.05274728782913      2.32873028434722     -2.15918684984924
  O   0.98052411507521      3.76280135035356     -2.11328825166246
  O   2.01622315775314      1.75519354751485     -3.06499896271553
  C   -0.56315953225921      1.79777537263701     -2.84785285030640
  F   -0.76577232478535      2.28075774022009     -4.06865103672189
  F   -0.62836688188613      0.46747802476794     -2.92104454228452
  F   -1.54762505176987      2.22112494110835     -2.06461385216680
  O   -0.41112109030437      0.17849254911393      3.59514807963692
  S   0.48127657658694      0.90436693009397      2.73970010867600
  O   1.55124618426394      1.58558582971564      3.70330619554104
  O   1.11496648905401      0.23894978416168      1.65336321617200
  C   -0.41981387127933      2.42262723434227      2.13299315116332
  F   -1.26911560819174      2.01477794322570      1.22891335829542
  F   0.46227673738373      3.24914059673445      1.62841962518297
  F   -1.04551426579894      2.97885373602247      3.14302504601027
  Cu  -0.73064898899707     -1.74410528387382      2.87299815881588
  Cu  1.16275950189151     -0.37595132910157     -0.63851931762732
  O   3.18102779716955     -0.78992032563489     -1.16354537962892
  C   4.01029104081350     -0.59493891379751     -2.31147251411909
  C   4.16504717501253      0.25880842899095     -1.12516774442980
  C   5.26463614647695      0.08331843935786     -0.14429206691285
  C   5.64696725514148     -1.18298268914118      0.29435555091224
  C   6.66435444705805     -1.31747721355408      1.22883629227483
  C   7.31206071854240     -0.19160333748370      1.72639824734808
  C   6.93673162308189      1.07091184581709      1.28720362160761
  C   5.91547649251119      1.20781634435747      0.35462585904449
  H   3.49942975222275     -0.20084404666172     -3.17717602759267
  H   4.72300756643679     -1.39441745983903     -2.47368321641148
  H   3.73921130926313      1.25079932628386     -1.18318234446770
  H   5.13377222502871     -2.06063616069972     -0.08231260057172
  H   6.94995463997499     -2.30436036573353      1.57544118568700
  H   8.10179521558099     -0.30005249421408      2.45897751556042
  H   7.43445853691538      1.95144823137399      1.67364693250732
  H   5.61752883336926      2.19328144509906      0.01161459889017
