29
Coordinates from ORCA-job copper_ii_sulfate_dimer_crest_opt_orca
  O   1.82653238465846      0.62400642480934     -1.43384719189129
  S   2.29098507144573      1.84295060438800     -0.56617318540684
  O   3.61872588906271      2.24422156324393     -0.87211628104427
  O   1.26363959737789      2.84050940598454     -0.59482721002626
  O   2.23813742540295      1.03675750595233      0.76656254924021
  O   -0.29587657852070     -3.49564322544165      0.90147060473067
  S   -0.27979600235242     -2.09775529512514      0.67057052248331
  O   -1.51209515525808     -1.35589729198190      0.80551417901596
  O   0.82974977610594     -1.38429853794280      1.48338325114581
  O   0.32670818842718     -1.72108181598095     -0.71751414638570
  Cu  1.44961308158399     -0.44552349865900      0.01350526792028
  Cu  -0.51685463091165      0.63262573212357     -0.13751680552044
  O   -1.23074689454887      2.01844154094019      1.41486992507359
  C   -2.44017342645143      1.71272466690191      2.13199922929206
  C   -2.50472798601302      2.41480687487646      0.85439719190041
  C   -2.80115721337901      1.66961086312896     -0.40278679074769
  C   -3.79103535947339      0.69579063525764     -0.47269230387759
  C   -3.93153949189057     -0.06343690202886     -1.62826259066062
  C   -3.07376954242994      0.12513403270114     -2.70404660510389
  C   -2.08568395824838      1.09903862265823     -2.64761477080927
  C   -1.96137900664545      1.89061926696251     -1.50561101044259
  H   -2.54841552369785      2.27140211623051      3.05211825884680
  H   -2.69630330780194      0.66190432374958      2.16900076040353
  H   -2.64533115307371      3.48965985203202      0.85009503122412
  H   -4.43709099384093      0.52154828850480      0.37822106615483
  H   -4.70144672881423     -0.82263208210341     -1.67816687465729
  H   -3.17447020324400     -0.48780574078344     -3.59045162995034
  H   -1.42512738583280      1.26767887971962     -3.48829439225251
  H   -1.23838120991323      2.70163450875470     -1.47936713711740
