23
Coordinates from ORCA-job lead_ii_fluoride_dimer_crest_opt_orca
  F   0.80171000950755      0.43819064202687     -1.87637597355324
  Pb  0.49550484147031      1.16466227059908      0.12654495424000
  F   -0.61233156387263     -0.87997356431045      0.33572699586330
  O   2.48468235538866     -0.35716190976710      0.78440595938792
  C   2.51504226044591     -1.77274672813768      0.57859171505793
  C   3.32790794134971     -0.88395331995165     -0.25851098885224
  C   4.79032784627522     -0.71777378327385     -0.06465924387403
  C   5.35680623375985     -0.70307527250404      1.20877352768433
  C   6.72752779928475     -0.55516247729392      1.35823085807235
  C   7.54301966611430     -0.42384287221391      0.23843315113690
  C   6.98133540253321     -0.43587048931859     -1.03145605877425
  C   5.60747587768692     -0.57710992490004     -1.18188135470381
  F   -1.87857094427208      1.35496705249892     -0.38824350417885
  Pb  -2.88251275785600     -0.68606813005479     -0.19271993526724
  F   -3.13747905799774     -0.22416274848957      1.89485462384905
  H   1.59894869371901     -2.18876615535482      0.17682321486254
  H   2.99720734133920     -2.32269593608677      1.37883381767440
  H   2.95740936660430     -0.66953401444666     -1.25527811152734
  H   4.72152340744208     -0.79607246441405      2.08200244964027
  H   7.16207880206955     -0.53946499910281      2.34989070869700
  H   8.61299573749890     -0.30866988667396      0.35780696569333
  H   7.61129952570276     -0.33039503425333     -1.90573537523742
  H   5.16377293490251     -0.57737540611197     -2.17089583296815
