21
Coordinates from ORCA-job lithium_chloride_dimer_crest_opt_orca
  Cl  4.23663758279101      0.66745996161185     -0.30961631417348
  Cl  0.61736424722094      2.18291704758820      0.50163429147947
  Li  -1.59212540932472      1.84477610194645      0.22190073104661
  Li  2.10234384040630      0.43953539243666      0.11303838998099
  O   1.09090985713316     -1.16744019641335      0.21857180906127
  C   0.52029318360907     -2.46958172225603      0.20396706446131
  C   -0.12695623237675     -1.37660842734190      0.94220113481287
  C   -1.33554916325393     -0.68128093378334      0.42797914118713
  C   -1.49147056738475     -0.39852222926599     -0.93006916480316
  C   -2.61891502815771      0.28112065625601     -1.37789895159462
  C   -3.60255176218660      0.68395926679220     -0.47339031329082
  C   -3.44817864908549      0.40626157148772      0.88233279744264
  C   -2.31402500487289     -0.26816113462711      1.33064721629912
  H   1.08091079642111     -3.21575682858962      0.75332143113517
  H   0.11079918348105     -2.76746119163732     -0.75430951983053
  H   -0.00048595822279     -1.35207091980304      2.01853587000058
  H   -0.71862465077893     -0.68392064309522     -1.63362325717890
  H   -2.72502570708878      0.51023336876395     -2.43001048235037
  H   -4.47389761800460      1.22213120160924     -0.82216854093483
  H   -4.19686820897500      0.73094898932806      1.59255204526098
  H   -2.17989591169818     -0.46056052546421      2.38811681974024
