23
Coordinates from ORCA-job nickel_ii_chloride_dimer_crest_opt_orca
  Cl  -1.94968313432332     -2.74737814619272      0.87269152827462
  Ni  -1.03001584406104     -1.08129926060004     -0.19681096471486
  Cl  1.04345305673927     -2.07732436688853     -0.40297614227795
  O   1.32482682267490      1.85626328519078      0.85551878538083
  C   1.06351821369986      1.37051036286316      2.18312101630625
  C   0.13165576376863      2.30104117615403      1.54911083692005
  C   -1.16584374622615      1.89904272955129      0.94455356310440
  C   -1.72397398440030      2.74318751929299     -0.00107093625232
  C   -2.85260488420331      2.36351337019024     -0.72649357331793
  C   -3.43869581817101      1.13550484816052     -0.49714748484131
  C   -2.93317168578799      0.29852667555467      0.50770022834317
  C   -1.80475411633226      0.68571691998140      1.24077796982359
  Cl  -0.18804644611186      0.43085362906190     -1.70371464901205
  Ni  1.73984990212529      0.09366820234146     -0.57538309060402
  Cl  3.73794906227940     -0.09566644983011      0.25116107882335
  H   1.75220226460855      1.73978138246818      2.93208988389823
  H   0.81392340152355      0.31589017755916      2.23476145432754
  H   0.20855480902816      3.34879494825574      1.81736065989959
  H   -1.25067565619011      3.69760662076960     -0.20268370260103
  H   -3.25926146843239      3.03104260659944     -1.47506952968328
  H   -4.31226598902095      0.82930915930260     -1.05782741683368
  H   -3.48004230200545     -0.59227014761239      0.78527100077858
  H   -1.46123221050274      0.07941722644635      2.07316919773212
