43
Coordinates from ORCA-job trimethylaluminum_dimer_crest_opt_orca
  C   0.04591957545527     -2.50684908995059      1.23815915924517
  Al  0.32225519100760     -1.12742125500634     -0.15025084611575
  C   2.20545738356336     -0.38580559044716     -0.10318872286031
  C   -0.31648007664981     -1.47563210591244     -1.98514282925360
  O   -0.62170011775326      0.39868386841572      0.36899154879210
  C   -1.35204604541290      0.71029338324813      1.57708725371847
  C   -2.03884725999595      0.77714727208396      0.28674158025123
  C   -2.97892104857270     -0.25065633906715     -0.22413535872185
  C   -3.59849494753384     -0.01376984181493     -1.44883076859403
  C   -4.45211109660554     -0.96094880522041     -1.99735979898053
  C   -4.69056902402369     -2.15109838300220     -1.32195954989219
  C   -4.08019364709203     -2.38856037490354     -0.09565230274878
  C   -3.23120751338881     -1.43985012115131      0.45632681966882
  C   5.20114991545865     -0.50249820180719      1.54798045833119
  Al  4.58753447821168      0.41458473804353     -0.08644263285963
  C   5.18897171730322     -0.29441934727159     -1.82593909662439
  C   4.26028306407355      2.35574306908787      0.03186694618332
  H   0.91958869024294     -3.16843033144462      1.26412707165386
  H   -0.82684516263673     -3.13909980894891      1.05083727914295
  H   -0.06036186566856     -2.09032406672998      2.24576259297013
  H   2.84653958126202     -1.24863585413723     -0.31053774833561
  H   2.37680958006298      0.02551932049748      0.89548080215526
  H   2.27203087524296      0.37739997304330     -0.88365738962492
  H   -0.45730129869775     -0.55410425290628     -2.56020715250170
  H   -1.26128424339833     -2.02903989493281     -2.01378851153063
  H   0.42292824306007     -2.07594497059257     -2.52755808321198
  H   -1.01956550996196      1.62941686161907      2.04102469235686
  H   -1.50612745945585     -0.13968162869823      2.22820781348654
  H   -2.13283540787921      1.75573275873521     -0.16818058297658
  H   -3.40253219757263      0.91388837896065     -1.97414560667113
  H   -4.92833272606656     -0.77130644933261     -2.95086062239156
  H   -5.35608024434270     -2.89169619891501     -1.74755348619186
  H   -4.27086159574212     -3.31182763909896      0.43637116081278
  H   -2.76875491813711     -1.63618892634815      1.41547870942872
  H   4.65969469871789     -0.16600422309508      2.43795479534927
  H   6.26448359959466     -0.30703030409958      1.72685393728905
  H   5.08335884131401     -1.58885470944924      1.48237587682567
  H   6.21956340592279      0.01666522246725     -2.03078334921126
  H   4.57307383405597      0.07515367375454     -2.65216554092147
  H   5.16959696408041     -1.38814671620538     -1.86267709656972
  H   3.74151013512838      2.74241468003882     -0.85106232191917
  H   5.20406669700787      2.90583919321242      0.11730430211040
  H   3.65860961265031      2.61676513448083      0.90854878177114
