23
Coordinates from ORCA-job lithium_tetrafluroborate_monomer_crest_opt_orca
  F   -2.65081507600145     -1.38190332917597      0.64308234807889
  B   -1.38940184481334     -0.87354843482030      0.58193320780025
  F   -2.24575230501391      2.83897989704209     -0.31344593798944
  F   -1.23344137330474      0.20125634888413      1.46175418151022
  F   -0.40424968141825     -1.79725315448102      0.69968581240660
  O   -1.31427612064652     -0.15675300398617     -0.81860717304373
  C   -0.72577227570792     -0.75077991751404     -2.01575861344588
  C   -0.07813523409958      0.43254742594021     -1.45449639938094
  C   1.18190557904387      0.41603910909506     -0.67871569573696
  C   2.07715852864473     -0.64730307888810     -0.75393489634464
  C   3.26085744716487     -0.60511164372595     -0.03090548313958
  C   3.54667595004147      0.49166996914039      0.77323318369418
  C   2.65513771358192      1.55577645206458      0.84830038451938
  C   1.47788939459523      1.52260850502830      0.11634058814529
  Li  -2.26470872373605      1.44916229689152      0.60852764678297
  H   -1.37493575440431     -0.64752646356313     -2.87354679984128
  H   -0.29872772570764     -1.72798803424359     -1.83203522934425
  H   -0.37339063221298      1.38971978782859     -1.86640982197267
  H   1.85858760032030     -1.50280127412572     -1.38053610567700
  H   3.95963853431622     -1.42900800799929     -0.09626615844485
  H   4.46909611017802      0.51935497622014      1.33985986891459
  H   2.88200750326617      2.41312123880248      1.46869849115625
  H   0.78190968245701      2.35328077107583      0.15728492652349
