22
Coordinates from ORCA-job tin_iv_fluoride_monomer_crest_opt_orca
  F   1.68342425430269      0.56191032252554     -1.79518394330231
  Sn  1.80621137038424      0.14393793106722      0.04512729038851
  F   2.02191888518990     -1.69218553376284      0.45513464784182
  F   3.52221977244581      0.85343679216603      0.43992290692599
  F   0.71353503198731      1.21368284196650      1.15041839526614
  O   -0.57041471811795     -0.67146948820953     -0.60340224942232
  C   -1.01077523854256     -2.03620789894452     -0.52948697626765
  C   -1.52857546874217     -1.03892833858211      0.41271857247755
  C   -2.87240067554956     -0.42382168366513      0.27477985975698
  C   -3.60083812860023     -0.12341347146215      1.42100217121741
  C   -4.86408745694370      0.44688404696490      1.31797986719590
  C   -5.39861461266969      0.72771689269158      0.06786131971333
  C   -4.66887668504215      0.43440561301584     -1.07990424841240
  C   -3.41171149341284     -0.14181596177024     -0.97915234826531
  H   -0.26000755544081     -2.73852442211271     -0.19105560868011
  H   -1.62267791546404     -2.33602280447844     -1.37191522137930
  H   -1.11405931639607     -1.04414927851864      1.41502909552842
  H   -3.17375198913282     -0.33170682998650      2.39533662169787
  H   -5.42529795386239      0.67995954210569      2.21399844016698
  H   -6.38004765380354      1.17759044230113     -0.01573919974234
  H   -5.08216716252590      0.65504948094285     -2.05616499116863
  H   -2.84414476693123     -0.36521769626739     -1.87501826167092
