36
Coordinates from ORCA-job tinii_trifluromethanesulfonate_monomer_crest_opt_orca
  O   -4.06251060919928     -1.59897812288287     -1.53433570564541
  S   -3.38566863553160     -0.54351951544954     -0.83571399899173
  O   -3.33877847119861     -0.61630312145066      0.59856162900529
  O   -2.09290289483253     -0.17659881835673     -1.45076990561558
  Sn  -0.10741605164696      0.53496973019131     -0.42447570872925
  O   2.38662066429787      0.23623362127195     -0.78057178942857
  S   3.47249453318711      0.68995684896134      0.09797431898400
  O   3.11739532780341      0.74760940971199      1.49026075605144
  O   4.75505377134367      0.12580049504167     -0.22244576262377
  C   3.64502936399907      2.46147883750204     -0.37122628222073
  F   3.88113129116078      2.58493041831078     -1.67527927821112
  F   2.53055820336245      3.13301361205713     -0.08150646142046
  F   4.65173574068499      3.03212908164223      0.28749569559433
  O   0.21195641146623     -1.70328877937477     -1.77547946751284
  C   -0.68658210673230     -2.70658841235335     -2.20891262757030
  C   0.72212390700277     -3.02420884632632     -1.87003367403650
  C   1.00418365326299     -3.73865600609840     -0.61623418394750
  C   1.64911113172683     -4.94893856687361     -0.65081572820683
  C   1.82329621778782     -5.66544958848645      0.53384302002615
  C   1.37964941072987     -5.20188388601647      1.78632485258165
  C   0.77097568954731     -3.98901118305329      1.85512023950609
  C   0.57894702333427     -3.16941166097268      0.66223205381497
  C   -4.39224279552721      0.95690099277958     -1.18066316016597
  F   -5.58678579460498      0.85699537578810     -0.60446178333099
  F   -3.78229857604342      2.04142281426742     -0.70900362068141
  F   -4.57442909705094      1.11456778900961     -2.48565599322843
  H   0.08945741172951      1.33747619724900     -1.99187675368625
  H   -0.43564772936399     -2.74493122361918      0.61939928466033
  H   -0.95998529267920     -2.65665042599866     -3.25512186455822
  H   -1.46073490827128     -2.97119358024981     -1.49852577443852
  H   1.42123858892380     -3.18585217539701     -2.68250273098647
  H   2.00229500185593     -5.35670519277267     -1.58863949954635
  H   2.32477973756252     -6.62535894111178      0.48389848158489
  H   1.53837061776069     -5.80298514589015      2.66996102917117
  H   0.43481317690107     -3.58191484788805      2.80060187516269
  H   1.18497195291498     -2.25119403759254      0.82397667594838
