34
Coordinates from ORCA-job zinc_trifluoromethanesulfonate_monomer_crest_opt_orca
  O   -0.80143017406155      1.25297596847824     -0.88345954636707
  S   -0.51037406197455      1.87581654918128      0.41937447795668
  O   -1.46269482824372      2.79520948132983      0.94452156690037
  O   -0.04769075640207      0.78899814692239      1.30517065496290
  C   1.00365656244952      2.88512888144474      0.14294346872561
  F   1.45430922312333      3.32661765491672      1.31098931224175
  F   1.94778772341563      2.16672802590539     -0.43392919008897
  F   0.71089639108085      3.92458604969031     -0.62583760243944
  O   2.71781228675201     -3.01123488140649     -0.98659266256235
  S   2.14434116776966     -1.89222186923804     -0.31623540690426
  O   1.63286330602092     -0.79516026158698     -1.15096197932362
  O   1.12557378318368     -2.15864223456435      0.71023775661586
  C   3.54082721161409     -1.12701005624816      0.59968024647932
  F   3.10717063208654     -0.15583746401517      1.38661094923063
  F   4.14470749387747     -2.04477242472315      1.33814633781176
  F   4.41289017729349     -0.61977162828457     -0.26248686468931
  Zn  -0.27290126044785     -0.73158772174497     -0.16439306410697
  O   -0.93850633396890     -2.17825549907654     -1.39401810835699
  C   -2.04335281519414     -1.96542473922648     -2.31165297745970
  C   -2.31012945446805     -2.48527139626400     -0.97388723714937
  C   -2.74622843048514     -1.58396178079350      0.13310146857988
  C   -3.53006145696577     -0.45351954605710     -0.10511938723020
  C   -3.84535197526546      0.40014256328726      0.94165152744807
  C   -3.37897757196522      0.13533982276129      2.22544642239786
  C   -2.60112139347784     -0.98746667308662      2.46896188199250
  C   -2.28343677119322     -1.85198299979579      1.42783786384149
  H   -2.24145084486578     -0.92562479886749     -2.54085271294439
  H   -2.02491028925864     -2.65129270608004     -3.14734681860340
  H   -2.46348663883931     -3.54967866220023     -0.84801248636002
  H   -3.89184255435934     -0.24609922645413     -1.10458283952247
  H   -4.44625801861080      1.27978699359534      0.75141262895781
  H   -3.62042721839136      0.81049556092213      3.03643104664965
  H   -2.24325643338850     -1.19450825698681      3.46895510378311
  H   -1.70274627049120     -2.74843400481863      1.61778020625446
